---- qbsp / ericw-tools v0.18.1 ----
Input file: Bridges.map
Output file: Bridges.bsp

---- LoadMapFile ----
*** WARNING 05: No info_player_start entity in level
         1330 faces
          155 brushes
           56 entities
           13 unique texnames
          258 texinfo

Opened WAD: C:/QuakeDev/wads/prototype_1_2.wad
Opened WAD: C:/QuakeDev/wads/START.WAD
Processing hull 0...
---- Brush_LoadEntity ----
          149 brushes
          583 planes
---- CSGFaces ----
         1294 brushfaces
         2293 csgfaces
         2562 mergedfaces
---- SolidBSP ----
         2272 split nodes
          479 solid leafs
         1615 empty leafs
          179 water leafs
            0 detail leafs
            0 detail illusionary leafs
            0 detail fence leafs
            0 illusionary visblocker leafs
         6949 leaffaces
         5385 nodefaces
---- Portalize ----
         1794 vis leafs
         1794 vis clusters
         5456 vis portals
---- FillOutside ----
          572 outleafs
---- MergeAll ----
         2578 mergefaces
---- SolidBSP ----
         1008 split nodes
          258 solid leafs
          686 empty leafs
           65 water leafs
            0 detail leafs
            0 detail illusionary leafs
            0 detail fence leafs
            0 illusionary visblocker leafs
         5818 leaffaces
         3357 nodefaces
---- Portalize ----
          751 vis leafs
          751 vis clusters
         2728 vis portals
---- Tjunc ----
         2394 world edges
         9341 edge points
         4332 edges added by tjunctions
            0 faces added by tjunctions
---- MakeFaceEdges ----
---- GrowRegions ----
Processing hull 1...
Processing hull 2...
---- WriteBSPFile ----
Wrote Bridges.bsp
         1596 planes            31920
         3815 vertexes          45780
         1044 nodes             25056
          227 texinfo            9080
         3393 faces             67860
         2875 clipnodes         23000
          788 leafs             22064
         5854 marksurfaces      11708
        17426 surfedges         69704
         8731 edges             34924
           13 textures         165440
              lightdata             0
              visdata               0
              entdata            3796

0.734 seconds elapsed
Peak memory usage: 17494680 (16.7M)
