---- qbsp / ericw-tools v0.18.1 ----
Input file: Bridges.map
Output file: Bridges.bsp

---- LoadMapFile ----
*** WARNING 06: No info_player_deathmatch entities in level
          396 faces
           66 brushes
           27 entities
            5 unique texnames
          109 texinfo

Opened WAD: C:/QuakeDev/wads/prototype_1_2.wad
Processing hull 0...
---- Brush_LoadEntity ----
           66 brushes
           64 planes
---- CSGFaces ----
          396 brushfaces
          423 csgfaces
          435 mergedfaces
---- SolidBSP ----
          895 split nodes
          293 solid leafs
          505 empty leafs
           98 water leafs
            0 detail leafs
            0 detail illusionary leafs
            0 detail fence leafs
            0 illusionary visblocker leafs
         1872 leaffaces
         1832 nodefaces
---- Portalize ----
          603 vis leafs
          603 vis clusters
         1600 vis portals
---- FillOutside ----
          300 outleafs
---- MergeAll ----
          428 mergefaces
---- SolidBSP ----
          327 split nodes
          125 solid leafs
          179 empty leafs
           24 water leafs
            0 detail leafs
            0 detail illusionary leafs
            0 detail fence leafs
            0 illusionary visblocker leafs
         1043 leaffaces
          883 nodefaces
---- Portalize ----
          203 vis leafs
          203 vis clusters
          728 vis portals
---- Tjunc ----
          497 world edges
         2562 edge points
          466 edges added by tjunctions
            0 faces added by tjunctions
---- MakeFaceEdges ----
---- GrowRegions ----
Processing hull 1...
*** WARNING 19: No entities in empty space -- no filling performed (hull 1)
Processing hull 2...
*** WARNING 19: No entities in empty space -- no filling performed (hull 2)
---- WriteBSPFile ----
Wrote Bridges.bsp
          153 planes             3060
         1019 vertexes          12228
          327 nodes              7848
           98 texinfo            3920
          883 faces             17660
         1519 clipnodes         12152
          204 leafs              5712
         1043 marksurfaces       2086
         3998 surfedges         15992
         2000 edges              8000
            5 textures          60064
              lightdata             0
              visdata               0
              entdata            1652

0.946 seconds elapsed
Peak memory usage: 6012338 (5.7M)
