---- qbsp / ericw-tools v0.18.1 ----
Input file: ElectricityAndExplosives.map
Output file: ElectricityAndExplosives.bsp

---- LoadMapFile ----
*** WARNING 06: No info_player_deathmatch entities in level
           48 faces
            8 brushes
           26 entities
            3 unique texnames
           19 texinfo

Opened WAD: C:/QuakeDev/wads/START.WAD
Processing hull 0...
---- Brush_LoadEntity ----
            8 brushes
           18 planes
---- CSGFaces ----
           48 brushfaces
           49 csgfaces
           46 mergedfaces
---- SolidBSP ----
           75 split nodes
           24 solid leafs
           52 empty leafs
            0 water leafs
            0 detail leafs
            0 detail illusionary leafs
            0 detail fence leafs
            0 illusionary visblocker leafs
          204 leaffaces
          204 nodefaces
---- Portalize ----
           52 vis leafs
           52 vis clusters
          125 vis portals
---- FillOutside ----
           46 outleafs
---- MergeAll ----
           22 mergefaces
---- SolidBSP ----
           15 split nodes
           10 solid leafs
            6 empty leafs
            0 water leafs
            0 detail leafs
            0 detail illusionary leafs
            0 detail fence leafs
            0 illusionary visblocker leafs
           82 leaffaces
           66 nodefaces
---- Portalize ----
            6 vis leafs
            6 vis clusters
            7 vis portals
---- Tjunc ----
           56 world edges
          216 edge points
           48 edges added by tjunctions
            0 faces added by tjunctions
---- MakeFaceEdges ----
---- GrowRegions ----
Processing hull 1...
Processing hull 2...
---- WriteBSPFile ----
Wrote ElectricityAndExplosives.bsp
           32 planes              640
           88 vertexes           1056
           15 nodes               360
            7 texinfo             280
           66 faces              1320
           43 clipnodes           344
            7 leafs               196
           82 marksurfaces        164
          312 surfedges          1248
          157 edges               628
            3 textures          35464
              lightdata             0
              visdata               0
              entdata            1497

0.459 seconds elapsed
Peak memory usage: 596636 (0.6M)
